PMOSFET - Output Characteristics

Vgs 0 1 DC 5
*Setting the gate bias

m1 2 1 0 0 p1
.model p1 PMOS
*Setting up P-MOSFET

R 2 4 1k
*Setting up the series resistance

Vid 4 5 0
*For purpose of studying Id

Vdd 0 5 DC 5 
*Setting the drain bias

.dc Vgs 0 5 0.1 Vdd 0 5 1

.control
run
save I(Vid)
print I(Vid)
plot Vid#branch
.endc
.end


